60 
 Energy = -62180.8503327502 
C -1.2491513 -0.0000001 3.3897671
C -0.3860090 -1.1880134 3.3897670
C 1.0105846 -0.7342327 3.3897670
C 1.0105847 0.7342327 3.3897670
C -0.3860090 1.1880135 3.3897670
C 2.3869202 -2.6417606 0.6120556
C 3.2500625 -1.4537471 0.6120555
C 3.0114959 -0.7195145 1.8612069
C 2.0009114 -1.4537471 2.6332248
C 1.6149023 -2.6417606 1.8612068
C 3.2500626 1.4537472 0.6120556
C 2.3869203 2.6417605 0.6120555
C 1.6149024 2.6417605 1.8612069
C 2.0009112 1.4537471 2.6332247
C 3.0114960 0.7195144 1.8612068
C -0.3782712 3.5402258 0.6120555
C -1.7748647 3.0864451 0.6120555
C -2.0134313 2.3522122 1.8612068
C -0.7642801 2.3522121 2.6332247
C 0.2463045 3.0864451 1.8612067
C -3.4838468 0.7342327 0.6120555
C -3.4838468 -0.7342326 0.6120556
C -2.8592712 -1.1880135 1.8612067
C -2.4732623 0.0000000 2.6332248
C -2.8592714 1.1880135 1.8612067
C -1.7748647 -3.0864450 0.6120554
C -0.3782711 -3.5402256 0.6120556
C 0.2463043 -3.0864448 1.8612067
C -0.7642801 -2.3522123 2.6332245
C -2.0134315 -2.3522121 1.8612068
C -0.2463045 -3.0864448 -1.8612068
C 0.7642801 -2.3522122 -2.6332246
C 2.0134314 -2.3522121 -1.8612068
C 1.7748648 -3.0864449 -0.6120555
C 0.3782711 -3.5402258 -0.6120555
C 2.8592711 -1.1880135 -1.8612069
C 2.4732623 -0.0000000 -2.6332248
C 2.8592711 1.1880136 -1.8612070
C 3.4838469 0.7342326 -0.6120555
C 3.4838468 -0.7342326 -0.6120556
C 2.0134316 2.3522121 -1.8612068
C 0.7642801 2.3522122 -2.6332248
C -0.2463046 3.0864449 -1.8612068
C 0.3782711 3.5402260 -0.6120554
C 1.7748648 3.0864450 -0.6120556
C -1.6149023 2.6417606 -1.8612068
C -2.0009114 1.4537472 -2.6332248
C -3.0114959 0.7195143 -1.8612068
C -3.2500625 1.4537470 -0.6120556
C -2.3869203 2.6417605 -0.6120555
C -3.0114957 -0.7195143 -1.8612067
C -2.0009113 -1.4537471 -2.6332247
C -1.6149022 -2.6417605 -1.8612067
C -2.3869202 -2.6417605 -0.6120554
C -3.2500625 -1.4537471 -0.6120555
C -1.0105847 -0.7342326 -3.3897670
C -1.0105846 0.7342326 -3.3897669
C 0.3860090 1.1880135 -3.3897669
C 1.2491513 -0.0000001 -3.3897670
C 0.3860089 -1.1880135 -3.3897670
